256
6.718400 6.718400 6.718400
Ar 237.2227471 270.8573455 -95.4482806
Ar 238.1176666 270.8517824 -94.5858172
Ar 238.0758582 271.5865660 -95.4556926
Ar 237.2624330 271.6755798 -94.5522582
Ar 237.2964145 270.8752823 -93.7732931
Ar 238.0504967 270.9028070 -92.8594779
Ar 238.1590960 271.6623528 -93.7039701
Ar 237.2826030 271.7101012 -92.8456374
Ar 237.3044344 270.9057989 -91.9951467
Ar 238.1574615 270.9355543 -91.1728697
Ar 238.1224540 271.6857073 -91.9903112
Ar 237.2639707 271.7044319 -91.1485375
Ar 237.2474284 270.8641331 -90.3722056
Ar 238.1352264 270.8268854 -89.5884769
Ar 238.1183608 271.7629354 -90.4090459
Ar 237.3266024 271.6381472 -89.5586830
Ar 237.2466184 272.4228393 -95.4776122
Ar 238.0766436 272.4890613 -94.6022206
Ar 238.0519310 273.3282837 -95.3622148
Ar 237.1747753 273.3405769 -94.6276908
Ar 237.3147166 272.5063094 -93.7292972
Ar 238.0957054 272.4714971 -92.8244885
Ar 238.1019783 273.3717078 -93.7403886
Ar 237.2861098 273.3654076 -92.8843383
Ar 237.2783770 272.4809017 -92.0450789
Ar 238.1059243 272.5500907 -91.2023563
Ar 238.0576835 273.3669596 -92.0477923
Ar 237.2775080 273.3863129 -91.1972147
Ar 237.2902231 272.6088900 -90.3240359
Ar 238.1302539 272.5237356 -89.5323538
Ar 238.1261202 273.3574184 -90.3655928
Ar 237.2907899 273.3650903 -89.5133320
Ar 237.2892600 274.1862368 -95.3813934
Ar 238.1155955 274.2257984 -94.5574831
Ar 238.0764842 275.0659994 -95.4229204
Ar 237.2358547 275.0215573 -94.6100219
Ar 237.2535585 274.1920696 -93.7685760
Ar 238.0861677 274.1737412 -92.9191027
Ar 238.1486991 275.0658557 -93.7422259
Ar 237.3135725 275.0954427 -92.8201468
Ar 237.2973415 274.2073275 -92.0906698
Ar 238.1062261 274.1903731 -91.2106611
Ar 238.1471403 275.0483628 -92.0377001
Ar 237.2753374 275.0166213 -91.2315617
Ar 237.2662645 274.2278078 -90.4091378
Ar 238.0744890 274.2238145 -89.4854831
Ar 238.0774632 275.0385194 -90.4285807
Ar 237.2646966 275.0777511 -89.5429302
Ar 237.2585358 275.8915632 -95.4300757
Ar 238.1421330 275.8625754 -94.6070346
Ar 238.1405576 276.7968445 -95.4208110
Ar 237.2506157 276.7866427 -94.5950281
Ar 237.2602129 275.8664374 -93.7648588
Ar 238.1000660 275.8893459 -92.8319300
Ar 238.1335736 276.7403461 -93.8131514
Ar 237.2658943 276.7123074 -92.8852767
Ar 237.2708673 275.9279352 -92.0140500
Ar 238.1448037 275.9141073 -91.2545776
Ar 238.1382748 276.6948906 -92.0682658
Ar 237.2866743 276.7373080 -91.2308877
Ar 237.3293683 275.9420467 -90.3647666
Ar 238.1356639 275.9106474 -89.5221714
Ar 238.1392790 276.6929546 -90.3973445
Ar 237.2763952 276.7621259 -89.6029372
Ar 238.8961032 270.8839097 -95.4110715
Ar 239.8310443 270.8789549 -94.6285180
Ar 239.7852022 271.7110693 -95.4913472
Ar 238.9305567 271.7039196 -94.5339664
Ar 238.9620531 270.8546646 -93.7469844
Ar 239.8009507 270.8922324 -92.9267453
Ar 239.7713833 271.7351952 -93.7171516
Ar 238.9935986 271.6893551 -92.8790405
Ar 238.9177369 270.8388358 -92.0680044
Ar 239.7620640 270.8470197 -91.2961067
Ar 239.7917273 271.6715821 -92.1381672
Ar 239.0486861 271.7328767 -91.2665885
Ar 238.9620512 270.8950172 -90.4019103
Ar 239.8285442 270.9231524 -89.5780089
Ar 239.8185649 271.7424257 -90.3567407
Ar 238.9488398 271.7110344 -89.5511453
Ar 238.9618334 272.5148710 -95.3930157
Ar 239.7811423 272.4875279 -94.6042141
Ar 239.7863073 273.3753658 -95.3895370
Ar 238.9109169 273.3488102 -94.5070516
Ar 238.9372849 272.5186473 -93.7241039
Ar 239.7679150 272.5307397 -92.9006544
Ar 239.7724235 273.4017325 -93.7531308
Ar 238.9238196 273.3385300 -92.8831120
Ar 238.9276326 272.5615595 -92.0134498
Ar 239.7659228 272.5715898 -91.2035984
Ar 239.7360239 273.4016432 -92.0773751
Ar 238.9807252 273.3656597 -91.2337168
Ar 238.9685265 272.5638637 -90.3214772
Ar 239.7530828 272.6155765 -89.4802083
Ar 239.7497768 273.3912002 -90.3624811
Ar 238.9391188 273.3724912 -89.5753996
Ar 238.9443363 274.1951110 -95.4576075
Ar 239.8258013 274.2449654 -94.5936267
Ar 239.7761036 275.0786201 -95.4364928
Ar 238.9050980 275.0720225 -94.5968419
Ar 238.9526752 274.2193262 -93.7157344
Ar 239.7705573 274.1837773 -92.8780366
Ar 239.8162208 275.0565197 -93.7450717
Ar 238.9906711 275.1199332 -92.9334473
Ar 238.8754136 274.1659101 -92.0628166
Ar 239.7374618 274.2806766 -91.2269119
Ar 239.7627780 275.0793802 -92.0669549
Ar 238.8569592 274.9911185 -91.2179300
Ar 238.9376275 274.2053968 -90.3794755
Ar 239.7757552 274.1301432 -89.5199755
Ar 239.7373687 274.9900109 -90.3081705
Ar 238.8882238 275.1111757 -89.5240666
Ar 238.9649052 275.8676191 -95.4003389
Ar 239.8125783 275.8928166 -94.6157402
Ar 239.8019255 276.7646008 -95.4823067
Ar 238.9626074 276.7470554 -94.5947235
Ar 238.9540588 275.9042956 -93.7849944
Ar 239.8088323 275.8731604 -92.8957891
Ar 239.7427467 276.7276730 -93.7341203
Ar 239.0000323 276.6834438 -92.8429919
Ar 238.9594323 275.8836676 -92.0281803
Ar 239.8593499 275.8990726 -91.2212425
Ar 239.8453599 276.6924875 -92.0334846
Ar 238.8879565 276.7142767 -91.2268932
Ar 238.9494475 275.8653960 -90.4127776
Ar 239.7332192 275.8468975 -89.5465000
Ar 239.7962024 276.6703801 -90.3920389
Ar 238.9796005 276.7319019 -89.5401890
Ar 240.7330197 270.9066934 -95.4320862
Ar 241.5141252 270.8439506 -94.5270665
Ar 241.4570762 271.7515255 -95.3664067
Ar 240.6813365 271.7389308 -94.5570226
Ar 240.6575924 270.8763305 -93.7650180
Ar 241.4837196 270.8559009 -92.8605954
Ar 241.4340981 271.7061599 -93.6836278
Ar 240.5951513 271.7595706 -92.8966862
Ar 240.6438074 270.8711764 -92.0861106
Ar 241.5443038 270.8970891 -91.2135871
Ar 241.4045037 271.7284428 -92.0651105
Ar 240.5562449 271.6977153 -91.2135116
Ar 240.6572440 270.9110730 -90.4198624
Ar 241.4712782 270.8538639 -89.6205214
Ar 241.4558990 271.6864372 -90.3936091
Ar 240.6892291 271.7347938 -89.5459996
Ar 240.6039631 272.5304794 -95.3692265
Ar 241.4640478 272.5756687 -94.5711423
Ar 241.4489906 273.3816293 -95.4012732
Ar 240.5983314 273.3799816 -94.5928384
Ar 240.6403632 272.5591490 -93.7532719
Ar 241.4617753 272.5292122 -92.9293522
Ar 241.4627335 273.4207209 -93.7736603
Ar 240.6817939 273.3891366 -92.9130303
Ar 240.5636147 272.5969313 -92.0373045
Ar 241.5190687 272.5304216 -91.1976358
Ar 241.4727668 273.3621680 -92.0667915
Ar 240.5602250 273.3829084 -91.2036385
Ar 240.6475037 272.4915299 -90.3554825
Ar 241.4807615 272.5269356 -89.4750075
Ar 241.4263576 273.4373518 -90.3882616
Ar 240.5916710 273.3673650 -89.5669588
Ar 240.6056253 274.2492385 -95.4277270
Ar 241.4818648 274.2535901 -94.6150220
Ar 241.4643771 275.0929558 -95.4041733
Ar 240.6107013 275.0118720 -94.5848128
Ar 240.6658954 274.2186948 -93.7129679
Ar 241.4957648 274.2223183 -92.8585947
Ar 241.4488972 275.0270701 -93.7544119
Ar 240.6095327 275.0197236 -92.8400957
Ar 240.6104092 274.1879437 -92.0482469
Ar 241.3867504 274.2739335 -91.1980574
Ar 241.4225435 275.0380927 -92.0622069
Ar 240.6102796 275.0273597 -91.2050163
Ar 240.5805705 274.2476252 -90.3962756
Ar 241.4258264 274.2449014 -89.4722742
Ar 241.4716815 275.0490041 -90.3513528
Ar 240.5706263 275.1133468 -89.5210555
Ar 240.6362799 275.8891112 -95.4136050
Ar 241.4120799 275.8849759 -94.5818692
Ar 241.4474266 276.7337450 -95.4116658
Ar 240.6217795 276.7388395 -94.6375254
Ar 240.6375571 275.9245684 -93.6951855
Ar 241.4988849 275.9439071 -92.8551163
Ar 241.4470552 276.7196324 -93.7190957
Ar 240.5856932 276.7090592 -92.8934966
Ar 240.6559234 275.8673599 -92.1120349
Ar 241.3941190 275.8908269 -91.2503281
Ar 241.5330751 276.7257576 -92.0213139
Ar 240.6547743 276.7464742 -91.2206151
Ar 240.6482837 275.9070992 -90.3711697
Ar 241.4569955 275.8824941 -89.5271490
Ar 241.5045850 276.7030204 -90.4267087
Ar 240.6353805 276.7908470 -89.5905320
Ar 242.3108952 270.8511931 -95.4123090
Ar 243.0602091 270.8816177 -94.6283486
Ar 243.1184976 271.6178729 -95.4946498
Ar 242.3302857 271.7020058 -94.5694198
Ar 242.3116148 270.8803121 -93.7047150
Ar 243.1423943 270.9217111 -92.7975852
Ar 243.1227242 271.7191084 -93.7684548
Ar 242.2860857 271.7656818 -92.8815297
Ar 242.3241736 270.8370667 -92.0119929
Ar 243.1309797 270.8046193 -91.2289599
Ar 243.1483283 271.7040991 -91.9975361
Ar 242.3566197 271.6832996 -91.1764087
Ar 242.3239457 270.8451147 -90.3782085
Ar 243.1632169 270.8231509 -89.5440885
Ar 243.1431745 271.7220734 -90.3868194
Ar 242.2437576 271.6908413 -89.5040666
Ar 242.3301306 272.4856511 -95.4192983
Ar 243.1802016 272.4890991 -94.6166012
Ar 243.1393410 273.2681024 -95.4549279
Ar 242.3506507 273.3758792 -94.5389375
Ar 242.2852787 272.5529498 -93.7613282
Ar 243.1818322 272.4862496 -92.9056823
Ar 243.1584283 273.3665344 -93.7189360
Ar 242.2949758 273.3681955 -92.9107886
Ar 242.3729402 272.5568953 -92.0224451
Ar 243.2002503 272.5694165 -91.1553761
Ar 243.1972135 273.3418054 -92.0371073
Ar 242.2669295 273.4111783 -91.2398932
Ar 242.3025809 272.5081144 -90.3120792
Ar 243.1703388 272.4313366 -89.5201329
Ar 243.1813575 273.3502035 -90.3382814
Ar 242.2823721 273.3812351 -89.5519126
Ar 242.3498124 274.1988396 -95.3983476
Ar 243.1394036 274.2072506 -94.6083708
Ar 243.1398978 275.0586347 -95.4468010
Ar 242.2770596 275.0772394 -94.5578675
Ar 242.3635982 274.2068829 -93.7243226
Ar 243.1710952 274.1476703 -92.8611906
Ar 243.1685441 274.9713738 -93.7371472
Ar 242.2489408 275.0902148 -92.8748887
Ar 242.2700713 274.1875589 -92.0763132
Ar 243.1595781 274.2001132 -91.2760401
Ar 243.1156438 275.0153495 -92.0502671
Ar 242.2506519 275.0827216 -91.2352645
Ar 242.3039633 274.2563153 -90.4073212
Ar 243.1693180 274.1780430 -89.4927958
Ar 243.1608013 275.0284884 -90.3434315
Ar 242.3268244 274.9656285 -89.5252284
Ar 242.3070585 275.8879888 -95.4228747
Ar 243.1072787 275.8717526 -94.5630779
Ar 243.1825062 276.7290618 -95.4064927
Ar 242.2822133 276.7256205 -94.6371908
Ar 242.2072959 275.8715058 -93.7236888
Ar 243.1301047 275.8714699 -92.9238020
Ar 243.1411963 276.6653694 -93.7005581
Ar 242.2761673 276.7292119 -92.8965876
Ar 242.3482965 275.8930550 -92.0603594
Ar 243.1846856 275.9254622 -91.2494888
Ar 243.1734485 276.7451361 -92.0636655
Ar 242.3216692 276.7441959 -91.1951272
Ar 242.3480662 275.8590908 -90.3100637
Ar 243.1673416 275.9031286 -89.5070672
Ar 243.1471334 276.7208131 -90.3904022
Ar 242.2962116 276.7380284 -89.5252730
