256
6.718400 6.718400 6.718400
Ar 12.9215786 14.5885383 -5.1626111
Ar 13.6060892 14.4706357 -4.3293445
Ar 13.5989523 15.4139366 -5.0512203
Ar 12.7621597 15.4014421 -4.3899501
Ar 12.7694173 14.5168236 -3.4770043
Ar 13.5483185 14.3663946 -2.6795160
Ar 13.6365061 15.1933704 -3.5504831
Ar 12.7338510 15.3111310 -2.6984406
Ar 12.7219583 14.4732010 -1.7794362
Ar 13.6483071 14.6585944 -0.7381808
Ar 13.5771010 15.3275665 -1.7081199
Ar 12.6980554 15.6603904 -0.8089314
Ar 12.7551457 14.5578613 -0.1013353
Ar 13.5284851 14.5894642  0.7173056
Ar 13.5814926 15.6139374 -0.0976675
Ar 12.7578497 15.5350102  0.7075533
Ar 12.6067971 16.2491143 -5.1599963
Ar 13.4923233 16.2728372 -4.4042630
Ar 13.3556176 17.0404206 -5.1909451
Ar 12.6430031 16.8793109 -4.3823868
Ar 12.7018102 16.1058845 -3.5096831
Ar 13.5579925 16.1585778 -2.4580077
Ar 13.3303417 17.1517001 -3.5364059
Ar 12.7335850 17.1174100 -2.6075412
Ar 12.7515520 16.4048402 -1.8138699
Ar 13.6471043 16.3937830 -1.0457276
Ar 13.6079089 17.1341446 -1.8384488
Ar 12.7638821 17.2998317 -0.9274981
Ar 12.7770335 16.3713201 -0.1062159
Ar 13.5281491 16.2728201  0.9809798
Ar 13.6643856 17.1316555  0.0896280
Ar 12.7293673 17.0755928  0.7656212
Ar 12.7547829 17.9745175 -5.0656595
Ar 13.6273729 17.9541643 -4.3233740
Ar 13.6903723 18.7008939 -5.1459743
Ar 12.7764648 18.7837937 -4.3068342
Ar 12.7260441 18.0043498 -3.4449844
Ar 13.6091430 17.9288734 -2.8138454
Ar 13.6251672 18.7915781 -3.5954320
Ar 12.7377011 18.7489059 -2.5472816
Ar 12.8250170 18.0506663 -1.7087872
Ar 13.7095968 18.0004673 -0.9572576
Ar 13.6367335 18.7534459 -1.8516760
Ar 12.6994326 18.6617367 -0.8689722
Ar 12.7133433 17.8604850 -0.0195756
Ar 13.5665352 17.9589846  0.6448709
Ar 13.8646393 18.7766824 -0.0811195
Ar 12.6551791 18.7125035  0.8257462
Ar 12.8326222 19.6307817 -5.0237034
Ar 13.6313624 19.5761451 -4.2945886
Ar 13.5115720 20.4762692 -5.1193963
Ar 12.7126022 20.5118155 -4.3783551
Ar 12.9177758 19.6664722 -3.5978398
Ar 13.6570420 19.5135931 -2.7016296
Ar 13.5473021 20.4838107 -3.4778057
Ar 12.8262216 20.2982018 -2.7113493
Ar 12.8010172 19.4975312 -1.7133382
Ar 13.6873247 19.5438288 -0.9781566
Ar 13.6085808 20.4154643 -1.8332299
Ar 12.7071173 20.4441031 -0.9519863
Ar 12.7855461 19.4729910 -0.0277019
Ar 13.6249739 19.4477631  0.7605540
Ar 13.5206156 20.3212377 -0.0828067
Ar 12.7915246 20.3249104  0.8267664
Ar 14.3307843 14.4920525 -5.2319148
Ar 15.2484503 14.3636447 -4.3235964
Ar 15.2299086 15.3516932 -5.1186195
Ar 14.4479788 15.1809785 -4.3297575
Ar 14.4605507 14.3844104 -3.6326005
Ar 15.0776370 14.4857670 -2.5369610
Ar 15.1468033 15.2178406 -3.4187935
Ar 14.2791898 15.3557000 -2.6259362
Ar 14.4458369 14.5060435 -1.5584977
Ar 15.3689987 14.6163869 -0.8234065
Ar 15.2676935 15.2564239 -1.8915929
Ar 14.5838473 15.4993664 -0.9880863
Ar 14.3482978 14.3837891  0.1341545
Ar 15.2820138 14.5608575  0.7919555
Ar 15.3023109 15.5429146 -0.0014802
Ar 14.4223472 15.4503081  0.6631175
Ar 14.4339784 16.0777504 -5.1116126
Ar 15.2200827 16.1787168 -4.1434770
Ar 15.2917762 16.9519252 -5.0281756
Ar 14.3807074 17.0513905 -4.4324562
Ar 14.1723437 16.1533445 -3.4334313
Ar 15.1111464 16.1005438 -2.6924802
Ar 15.1845032 17.0304173 -3.4399852
Ar 14.2191919 17.0294042 -2.6590203
Ar 14.4419250 16.4142584 -1.8106911
Ar 15.3792613 16.3639326 -1.0826873
Ar 15.1987282 17.0000902 -2.0010496
Ar 14.5320516 17.2280146 -1.0737631
Ar 14.4384550 16.3474043 -0.2709383
Ar 15.0984054 16.3381325  0.6735623
Ar 15.3149839 17.0262055 -0.2481572
Ar 14.3525783 17.0533868  0.8846737
Ar 14.3613533 17.9276931 -5.2177407
Ar 15.2135573 17.7192387 -4.3783694
Ar 15.3622065 18.6532935 -5.1730405
Ar 14.4985109 18.7049745 -4.3397615
Ar 14.4413070 17.9196091 -3.6049038
Ar 15.2782624 17.9785445 -2.7707917
Ar 15.3970985 18.7601774 -3.5080321
Ar 14.4160102 18.6844223 -2.6252667
Ar 14.4972677 17.9366290 -1.9566731
Ar 15.2627326 17.9740997 -0.9487828
Ar 15.4017641 18.7076024 -1.9602370
Ar 14.5015521 18.7850676 -1.0090423
Ar 14.4180050 17.8229328 -0.1161381
Ar 15.2624546 17.8332210  0.6862164
Ar 15.1558318 18.6906504 -0.1956732
Ar 14.6144187 18.8020407  0.7703402
Ar 14.4661700 19.4573450 -5.0414685
Ar 15.3107671 19.6527833 -4.2540133
Ar 15.3545787 20.5095535 -5.1666562
Ar 14.4683322 20.4143090 -4.5036992
Ar 14.5168029 19.5628197 -3.4848465
Ar 15.3728912 19.6224251 -2.6946871
Ar 15.3407727 20.3745853 -3.3890573
Ar 14.4638975 20.2331334 -2.6056810
Ar 14.6892770 19.4110854 -1.8453459
Ar 15.2115053 19.5749895 -0.8803880
Ar 15.3067300 20.5635413 -1.7073024
Ar 14.3782928 20.2997132 -0.8725137
Ar 14.4672175 19.6102618  0.0328952
Ar 15.3396672 19.6564470  0.7959299
Ar 15.1526545 20.4288412 -0.0877267
Ar 14.4945079 20.3112150  0.9871850
Ar 16.1732768 14.5859759 -5.2144098
Ar 16.8533394 14.5560475 -4.2804259
Ar 16.8814620 15.4481215 -5.2009270
Ar 15.9370848 15.2241784 -4.3050861
Ar 16.1359683 14.4790885 -3.5741344
Ar 16.8605149 14.6203981 -2.3612293
Ar 16.7456160 15.3601452 -3.5314925
Ar 16.1640896 15.5549774 -2.4094074
Ar 16.1157027 14.5864021 -1.6292550
Ar 16.8486965 14.6194296 -0.8501233
Ar 16.9281658 15.4877238 -1.6433776
Ar 16.0307974 15.5069876 -0.8462925
Ar 16.0437758 14.5725096 -0.0685315
Ar 17.0096941 14.5697812  0.6596177
Ar 16.8135421 15.4038001 -0.0536119
Ar 16.0653553 15.3742921  0.7755388
Ar 15.9846323 16.1523430 -5.1387554
Ar 16.7870619 16.0193360 -4.3092860
Ar 16.8432966 16.9948991 -5.1714113
Ar 16.1370328 16.9691162 -4.2949049
Ar 15.9945598 16.1507582 -3.3884723
Ar 16.8899197 16.3764405 -2.6293497
Ar 16.9571127 16.9979018 -3.4545686
Ar 16.0923908 17.0692613 -2.6816026
Ar 16.1499543 16.3904371 -1.8268938
Ar 16.8777548 16.3645566 -0.9397274
Ar 17.1338774 17.1079157 -1.8844047
Ar 16.1176623 17.2187071 -0.9983684
Ar 16.1647870 16.3225622 -0.1355422
Ar 16.9489308 16.2114433  0.7489699
Ar 17.0238403 17.2729951  0.0705562
Ar 15.9309897 16.9751471  0.7700977
Ar 16.0355119 17.8017219 -5.1250454
Ar 16.8998684 17.7939350 -4.3826657
Ar 17.0152465 18.7581926 -5.1514469
Ar 16.2893766 18.7804989 -4.1440267
Ar 16.0781715 17.8384881 -3.4425852
Ar 16.9248968 17.8599013 -2.6462950
Ar 16.9962290 18.8988525 -3.3653188
Ar 16.1476156 18.6583433 -2.6698851
Ar 16.2221018 17.8267687 -1.8182649
Ar 16.9438948 17.9917192 -0.8332188
Ar 16.9614870 18.7982564 -1.7868738
Ar 16.1913974 18.7088569 -0.8061266
Ar 16.1488670 17.8966244 -0.0323868
Ar 16.7950609 17.9419488  0.8926227
Ar 17.0218834 18.6556533  0.0601574
Ar 16.0777639 18.7823436  0.7098786
Ar 16.1928841 19.5121469 -5.2166670
Ar 17.0157205 19.6065515 -4.4025171
Ar 16.9295181 20.4061624 -5.2562813
Ar 16.1430974 20.2520586 -4.4236956
Ar 16.1707348 19.5827836 -3.4625247
Ar 17.3169000 19.7169247 -2.4366455
Ar 16.9724814 20.4355868 -3.5150042
Ar 16.0997277 20.4832673 -2.5542984
Ar 16.1299266 19.6818290 -1.6354899
Ar 16.9629603 19.5542011 -0.8379035
Ar 16.8583950 20.4272885 -1.5084485
Ar 16.0199807 20.4080984 -0.7370481
Ar 16.1852670 19.5634289 -0.0932546
Ar 16.9637212 19.6407435  0.7168582
Ar 16.9274811 20.4213057 -0.0349166
Ar 16.1924123 20.3948825  0.6539621
Ar 17.7516106 14.6101415 -5.0475563
Ar 18.6492800 14.6175406 -4.2631445
Ar 18.6928406 15.2573300 -5.1802478
Ar 17.7840716 15.3317577 -4.3238979
Ar 17.7228373 14.7610259 -3.3692038
Ar 18.6186613 14.6545419 -2.7253261
Ar 18.5925121 15.4510450 -3.4862836
Ar 17.8119420 15.3408326 -2.4594233
Ar 17.6211298 14.5523903 -1.6032122
Ar 18.5860283 14.7840580 -0.8998559
Ar 18.7387274 15.5027729 -1.6752227
Ar 17.7119757 15.5672553 -0.8694294
Ar 17.7045407 14.6271540 -0.1930560
Ar 18.6573903 14.4931563  0.8586829
Ar 18.5155728 15.5494346 -0.0402948
Ar 17.8906120 15.2495281  0.7603757
Ar 17.6982408 16.2696580 -5.0994009
Ar 18.6403941 16.1639231 -4.4142217
Ar 18.5006750 17.1332476 -4.9860389
Ar 17.8602292 16.9736893 -4.1832700
Ar 17.6110439 16.0167471 -3.4513147
Ar 18.6048650 16.1978571 -2.6668664
Ar 18.6607017 16.9489717 -3.4854600
Ar 17.9454013 17.0661248 -2.7355570
Ar 17.8741201 16.2559436 -1.7214260
Ar 18.6075143 16.4838464 -0.8040598
Ar 18.6463548 17.0394265 -1.7359386
Ar 17.6320046 17.1122007 -0.9436243
Ar 17.7651859 16.4440175 -0.1325948
Ar 18.4400598 16.1970787  0.8485751
Ar 18.6520154 17.1723581 -0.0056532
Ar 17.6988804 17.2340891  0.9008734
Ar 17.8307009 17.9540841 -5.0354642
Ar 18.6385943 17.9483653 -4.1766027
Ar 18.7344296 18.7969252 -5.0675865
Ar 17.8339876 18.8445942 -4.3131289
Ar 17.6990237 18.0094717 -3.5780422
Ar 18.5847979 18.0132407 -2.5872576
Ar 18.6452835 18.9350094 -3.5029491
Ar 17.7809433 18.6356204 -2.6763806
Ar 17.8492844 18.0622019 -1.6461383
Ar 18.6092370 17.9506494 -0.9495794
Ar 18.6826310 18.7008329 -1.7981277
Ar 17.7396673 18.8310969 -0.7995354
Ar 17.9096400 17.9662173 -0.1347602
Ar 18.6026441 17.9471308  0.8822740
Ar 18.6090340 18.7648429 -0.0511243
Ar 17.8956895 18.7889674  0.8112928
Ar 17.8733429 19.5844579 -5.2196488
Ar 18.6297743 19.6192458 -4.2679388
Ar 18.6514374 20.3048342 -5.1452261
Ar 17.8238824 20.6548605 -4.1840168
Ar 17.7757820 19.6516231 -3.4990882
Ar 18.5148633 19.5604514 -2.4423349
Ar 18.7234573 20.4075119 -3.5450524
Ar 17.9210861 20.5487509 -2.7466347
Ar 17.8736878 19.5251712 -1.5774272
Ar 18.6592293 19.5931947 -0.7982885
Ar 18.6861058 20.3480846 -1.7144485
Ar 17.9041638 20.5059077 -0.9324148
Ar 17.7669245 19.5973849 -0.0285379
Ar 18.7348276 19.5874696  0.7722861
Ar 18.7436150 20.3837907  0.0240779
Ar 17.8399958 20.4323593  0.6160814
