256
6.718400 6.718400 6.718400
Ar 308.5435618 344.7336588 -130.1500234
Ar 307.4246773 350.3254543 -127.1300705
Ar 304.6559461 335.5144857 -109.2839354
Ar 285.1813253 351.2380861 -117.5257127
Ar 263.9019706 344.9948139 -129.3971411
Ar 304.5950402 342.9570541 -118.7456067
Ar 298.4261078 340.5801186 -115.7670269
Ar 308.1956274 337.7123431 -119.9807685
Ar 303.1093560 334.6612620 -120.5202472
Ar 294.4384162 347.7993221 -119.5470633
Ar 299.3730898 352.0004611 -119.6053819
Ar 291.9583269 359.0048417 -121.2622058
Ar 305.0784846 338.5822281 -104.6918537
Ar 290.1096107 334.1720918 -116.9307994
Ar 300.1741116 345.4260463 -124.8414903
Ar 302.5194868 329.4052902 -120.4806700
Ar 295.9747261 343.9012297 -125.0673984
Ar 309.6182237 338.2266720 -126.7373754
Ar 296.4812181 355.9227157 -122.2930405
Ar 303.7973010 352.2494320 -106.8034808
Ar 297.4547476 363.3127127 -115.9695354
Ar 300.6933097 339.3539700 -121.3635501
Ar 306.7286367 345.5640982 -133.7940370
Ar 299.0012271 333.4116835 -128.2518462
Ar 300.6015413 348.8975117 -114.9027289
Ar 288.0295832 357.0447414 -129.9206501
Ar 293.7204761 339.1596952 -136.0344308
Ar 312.7142392 350.9577290 -110.0110474
Ar 309.8173900 344.8675071 -122.8650784
Ar 308.2279653 348.8012115 -109.7599768
Ar 318.7217573 353.8018128 -113.7697099
Ar 309.9804746 350.9753332 -105.9411067
Ar 314.8500373 337.7905249 -121.6291481
Ar 313.3757513 340.0393696 -108.9845812
Ar 310.0081139 344.8751005 -120.9848996
Ar 313.4501211 360.2996367 -114.5366604
Ar 309.4697521 345.0220547 -108.4569419
Ar 299.8970090 331.1176669 -104.1605624
Ar 289.6791480 354.8804210 -125.5967027
Ar 306.9675119 349.2516186 -120.3127754
Ar 308.9824036 334.5013217 -112.9181468
Ar 299.6682269 354.7523472 -110.6313689
Ar 294.4305476 347.1932178 -129.0640904
Ar 295.5909273 353.9716592 -118.0211688
Ar 289.3327019 350.5239834 -113.5210782
Ar 305.2893724 354.8294726 -113.3946871
Ar 303.6781726 355.7010612 -133.4311208
Ar 308.5235571 344.3372093 -91.0653019
Ar 292.4340388 349.0519782 -126.7978763
Ar 302.9635951 346.4337430 -121.7769900
Ar 292.2655929 343.2824270 -122.9672303
Ar 291.1548799 353.0154183 -127.1942815
Ar 301.8088081 353.5237886 -117.2570027
Ar 308.8848878 349.6473703 -116.1252138
Ar 300.6501801 339.4756716 -117.6008878
Ar 288.5448555 347.2411765 -132.4461911
Ar 283.9913289 360.8068550 -118.7195138
Ar 307.2881775 358.3848757 -109.8882708
Ar 291.3780034 343.8738919 -123.3830827
Ar 299.4593657 347.9578921 -128.9208046
Ar 298.5907960 343.0581978 -114.0849807
Ar 313.0219116 360.9931901 -113.8015178
Ar 306.4822771 335.2779610 -118.4061180
Ar 293.4340937 339.3115884 -112.5495167
Ar 293.4694151 358.0096312 -133.5565314
Ar 297.1545146 339.9727811 -117.6933590
Ar 296.6078283 354.2838430 -124.7587217
Ar 287.0802285 340.5434457 -124.1762020
Ar 309.7774077 336.8996596 -122.2967597
Ar 294.4622935 322.0058051 -113.2548913
Ar 307.6174441 345.0679941 -120.8833062
Ar 304.2598184 334.8995795 -111.6780939
Ar 302.2380577 348.4653021 -124.6047513
Ar 313.6331544 327.5699563 -116.4593619
Ar 312.5460187 356.3318691 -111.4945384
Ar 295.6685852 336.0678330 -108.1909340
Ar 312.4656559 359.5257656 -116.6009174
Ar 300.0589721 350.0879134 -104.3434932
Ar 303.8480774 333.0054906 -114.4156217
Ar 311.5740570 324.6775756 -101.6450101
Ar 300.9235025 352.6602852 -132.0450877
Ar 299.7887841 366.9652798 -116.7330907
Ar 300.1719501 344.9100759 -125.7324426
Ar 309.3100053 368.4631585 -135.0715223
Ar 304.2292780 344.7890947 -117.1660717
Ar 314.0128266 347.7948644 -111.5890069
Ar 284.9239171 361.6960376 -115.2602733
Ar 296.4691532 338.1493298 -125.0221739
Ar 294.4239943 349.5716114 -107.6056665
Ar 314.4426027 346.7454775 -119.3894657
Ar 296.9815568 350.2914144 -105.1025395
Ar 311.2017526 330.4919907 -112.3841514
Ar 297.6000391 334.9568246 -100.3232048
Ar 290.9798391 359.6727834 -98.8285344
Ar 315.2205979 360.4999495 -133.4721855
Ar 288.9511811 337.2460271 -116.9064125
Ar 305.4810064 349.3956911 -128.4359652
Ar 309.4196581 348.9393251 -132.9559970
Ar 306.5602554 333.8811385 -105.9182767
Ar 295.3311950 354.9193765 -115.8345974
Ar 294.5637692 331.7940710 -122.4282285
Ar 284.8653801 341.0993433 -124.5477443
Ar 304.6083287 340.6034887 -107.8926652
Ar 300.1291196 336.9608142 -96.4973239
Ar 297.4445723 334.7623688 -119.5305658
Ar 307.4878655 349.4564533 -137.2318133
Ar 290.4726471 340.6501288 -107.0150023
Ar 291.9877968 337.1066859 -118.4693041
Ar 315.1850169 359.0052948 -114.6381721
Ar 299.1487788 339.2354589 -108.9022142
Ar 306.0652844 341.5926903 -125.9903820
Ar 303.6739669 333.0336806 -119.7800819
Ar 309.3657010 353.1595575 -106.2799806
Ar 309.3766083 356.8536551 -119.2506024
Ar 315.4057313 356.0626607 -139.0395956
Ar 315.3754849 345.7660175 -124.3691124
Ar 308.2114026 334.6098758 -108.2636661
Ar 292.9580324 343.8775986 -112.4806915
Ar 290.3286995 337.6219739 -101.7420164
Ar 294.0748890 324.1881383 -118.3242400
Ar 308.8018273 340.0472844 -116.2067194
Ar 304.7760275 345.9747427 -109.2919718
Ar 289.4499537 346.6607791 -130.6374488
Ar 304.7888098 330.0981317 -113.3645544
Ar 303.4304395 343.8942218 -124.2607415
Ar 306.7371861 335.3610447 -116.2244099
Ar 310.2005535 348.5664901 -123.1394825
Ar 289.7677802 360.7325076 -119.4562407
Ar 295.1903631 346.5258054 -121.0557402
Ar 321.1026803 344.0574751 -130.7651512
Ar 289.6729145 346.4035528 -116.1222396
Ar 320.8230108 336.1780425 -126.1811537
Ar 306.9447429 354.5628199 -128.2070907
Ar 284.8488183 353.3366291 -104.2959595
Ar 301.0266675 353.8648342 -121.3103827
Ar 301.8899474 335.3274448 -134.4281346
Ar 298.9747641 352.6535617 -111.9441355
Ar 316.4650335 352.6252031 -131.2493198
Ar 311.5952773 364.4079872 -120.9122706
Ar 306.4002905 336.3268089 -122.1992143
Ar 301.7023038 336.7238257 -115.3602414
Ar 317.5855173 354.9155096 -101.4581512
Ar 299.6806660 356.3591350 -134.5497823
Ar 300.2664735 345.0804746 -101.8558471
Ar 285.6863398 331.3799999 -111.9978042
Ar 304.2314815 351.5391671 -118.4832698
Ar 297.2681979 346.8391798 -128.8253268
Ar 299.2237924 338.0774049 -108.2551052
Ar 299.3473990 354.4507356 -131.7758719
Ar 313.0518718 350.7497214 -129.1032681
Ar 291.6718163 331.7429959 -125.9742564
Ar 301.4277211 347.8221695 -117.6842827
Ar 303.4974399 332.0309923 -105.6783242
Ar 307.0246186 361.5778177 -106.4757226
Ar 298.5512737 331.6058518 -123.1910152
Ar 308.7618450 338.0018379 -120.7423941
Ar 303.7865540 345.8606070 -115.4303500
Ar 291.3488743 352.9879806 -108.3499422
Ar 310.4318871 323.9252876 -123.1144760
Ar 310.9165327 358.8339347 -107.7689997
Ar 287.4509379 339.9579608 -103.0989792
Ar 302.2287339 340.4912605 -121.9334398
Ar 308.4109976 356.5796710 -119.7936089
Ar 315.2008181 337.3575525 -125.6602978
Ar 291.8431518 344.1293627 -115.7159690
Ar 317.6115481 345.8125733 -104.6441559
Ar 310.2100382 348.8349350 -114.4381452
Ar 321.4529381 340.1981566 -118.2690103
Ar 306.4117617 348.5936528 -114.3243606
Ar 309.6910862 342.4298220 -118.4058383
Ar 301.2533175 346.0996245 -133.7522150
Ar 303.7857742 335.6562577 -119.0066181
Ar 289.4653950 344.8585942 -117.2345158
Ar 294.9399961 365.3694292 -98.3424608
Ar 320.9535265 344.1559544 -109.1317573
Ar 307.4363738 336.8016431 -114.9905781
Ar 311.9357052 348.1609756 -123.1960458
Ar 298.8557732 340.5025349 -123.6472567
Ar 296.6447691 360.8958227 -128.1852350
Ar 297.9017733 360.8936486 -137.0652893
Ar 298.5186796 328.7237338 -105.5735037
Ar 307.4039248 355.1217718 -123.8246197
Ar 304.5129966 367.1793105 -106.1860582
Ar 294.7075082 325.6030151 -123.4094588
Ar 290.4763960 342.6823057 -117.9089392
Ar 302.5277641 348.6769702 -89.7598828
Ar 305.9764516 345.3332557 -130.9934283
Ar 289.0428910 352.5217133 -123.4077737
Ar 303.4267396 341.8376334 -110.8049084
Ar 299.5966779 349.0730196 -117.3610738
Ar 306.0750093 346.5741148 -97.5664826
Ar 302.2418898 332.2793273 -100.1987043
Ar 318.9296080 336.4321239 -112.6295865
Ar 294.9343510 336.6394940 -110.9493481
Ar 316.2475409 346.9628642 -120.7052743
Ar 308.0271683 354.4439885 -123.2212011
Ar 293.4650886 360.1645835 -111.6636928
Ar 313.8975804 340.3845286 -120.1386019
Ar 298.2479794 335.4944730 -104.4476994
Ar 309.2463002 356.1456857 -137.6394743
Ar 292.8492159 338.3332230 -109.3588694
Ar 305.6373295 337.0032393 -121.5015499
Ar 313.1328284 349.4714432 -125.8512908
Ar 304.3863578 321.6010422 -123.7485149
Ar 302.3764192 347.6520393 -117.0838996
Ar 303.6981673 343.3081231 -112.9674710
Ar 318.2920867 351.8296293 -120.2814569
Ar 315.1304634 363.9322430 -120.9212485
Ar 298.6800616 329.9751814 -117.4223971
Ar 300.8764523 345.3272514 -126.4098832
Ar 302.5239076 358.6184929 -119.0146748
Ar 312.8580326 330.2527062 -113.6876554
Ar 294.0514954 343.0065953 -109.1962943
Ar 296.4306562 336.4153669 -110.0510133
Ar 295.4864853 337.5191689 -95.7134844
Ar 299.9123904 352.4320105 -123.5541525
Ar 298.7012537 339.2708016 -113.3308927
Ar 289.9935048 356.5614007 -101.1681350
Ar 301.5034183 355.7907943 -135.5792828
Ar 304.8594135 342.4611124 -133.3736548
Ar 322.5190671 332.8329251 -125.3604958
Ar 315.0412357 355.0340734 -132.1358082
Ar 312.5038553 335.4581057 -102.5048756
Ar 294.2719795 348.1314538 -93.9154196
Ar 307.5421196 343.2832381 -125.2242634
Ar 296.6677818 346.5494253 -118.6813951
Ar 314.5184972 349.0555041 -118.0805327
Ar 305.8655434 344.9223148 -127.2449329
Ar 295.7967357 337.3586172 -121.4509136
Ar 311.8424537 328.6413629 -114.2576594
Ar 294.7460870 339.5286488 -101.9959359
Ar 297.2902847 339.8949303 -116.6243287
Ar 312.1794607 351.0005051 -113.0825208
Ar 318.9598493 346.9246911 -112.4343053
Ar 305.2481231 342.3953451 -116.9076757
Ar 318.4614850 334.4545314 -112.2361670
Ar 316.4766726 366.0206959 -114.2239442
Ar 304.5713027 336.8112035 -108.2000259
Ar 300.7360679 337.2671043 -92.5973327
Ar 287.6357905 338.4132131 -124.3276620
Ar 303.6603789 352.2913567 -116.6945151
Ar 317.6172774 349.6279663 -116.9887331
Ar 295.3834151 341.0053942 -120.7541429
Ar 317.5301323 344.7436905 -119.5531388
Ar 312.3785498 341.1555072 -114.4417661
Ar 310.9855585 336.1825246 -120.7350957
Ar 311.0204281 349.2689920 -128.4799650
Ar 303.0473364 354.4230661 -95.7520192
Ar 304.4562063 357.2389718 -117.7716296
Ar 320.1158607 344.0895305 -121.2615093
Ar 304.1736498 341.0977096 -116.0477782
Ar 308.4757725 352.6317860 -132.8454466
Ar 320.7764010 348.5909714 -132.4016704
Ar 307.4830914 354.9816812 -129.1841541
Ar 318.1905492 372.5587128 -117.1477111
Ar 310.5422466 364.2473454 -133.8329592
