256
6.718400 6.718400 6.718400
Ar 150.0625257 171.2976042 -60.3395391
Ar 150.8899310 171.2981962 -59.5144337
Ar 150.9014521 172.1537603 -60.3562284
Ar 150.0575975 172.1553218 -59.5183464
Ar 150.0724020 171.3032312 -58.6863765
Ar 150.9006036 171.2944980 -57.8174618
Ar 150.8573970 172.1458696 -58.6891351
Ar 150.0676784 172.1589950 -57.8199239
Ar 150.0794133 171.2949738 -56.9981000
Ar 150.8638396 171.2972231 -56.1330557
Ar 150.8834820 172.1507758 -56.9815699
Ar 150.0705459 172.1608692 -56.1339810
Ar 150.0562606 171.3277227 -55.2847141
Ar 150.9047481 171.3296215 -54.4559874
Ar 150.8957445 172.1409989 -55.2814066
Ar 150.0549117 172.1447189 -54.4520701
Ar 150.0549309 172.9974514 -60.3501335
Ar 150.9013633 173.0038822 -59.5022444
Ar 150.9175369 173.8300281 -60.3413096
Ar 150.0726783 173.8246838 -59.5067994
Ar 150.0674666 172.9924144 -58.6588914
Ar 150.9028690 172.9787106 -57.8313296
Ar 150.9016162 173.8206971 -58.6610568
Ar 150.0460546 173.8168178 -57.8221023
Ar 150.0576394 172.9770008 -56.9745344
Ar 150.9120391 172.9795264 -56.1516343
Ar 150.9024065 173.8261879 -57.0250338
Ar 150.0715584 173.8281649 -56.1442548
Ar 150.0712767 172.9817235 -55.3014522
Ar 150.8935469 172.9818307 -54.4622961
Ar 150.9149068 173.8147185 -55.2944336
Ar 150.0549407 173.8252556 -54.4624834
Ar 150.0421425 174.6682301 -60.3432037
Ar 150.9051935 174.6535078 -59.5102329
Ar 150.9058360 175.4999737 -60.3408062
Ar 150.0758600 175.5008450 -59.4997156
Ar 150.0736192 174.6484096 -58.6499174
Ar 150.9126606 174.6511903 -57.8283256
Ar 150.9042728 175.4932579 -58.6822338
Ar 150.0758302 175.4688579 -57.8228623
Ar 150.0900493 174.6661877 -56.9801446
Ar 150.9091904 174.6501402 -56.1395257
Ar 150.9187397 175.4857203 -56.9840319
Ar 150.0673746 175.5178560 -56.1465654
Ar 150.0704934 174.6853845 -55.3044403
Ar 150.9092108 174.6780294 -54.4849841
Ar 150.9112657 175.5127880 -55.3225250
Ar 150.0595319 175.4907921 -54.4707894
Ar 150.0663269 176.3350434 -60.3444211
Ar 150.9339865 176.3639970 -59.5197841
Ar 150.9202026 177.1578348 -60.3371405
Ar 150.0494303 177.1900319 -59.5126482
Ar 150.0813080 176.3498395 -58.6628114
Ar 150.9049559 176.3396336 -57.8377520
Ar 150.8905819 177.1922206 -58.6667796
Ar 150.0687299 177.1967676 -57.8325558
Ar 150.0620292 176.3103226 -56.9879221
Ar 150.8938572 176.3536398 -56.1401597
Ar 150.8824691 177.1719837 -56.9827700
Ar 150.0641674 177.1674296 -56.1416419
Ar 150.0623176 176.3383864 -55.2938533
Ar 150.8901884 176.3244978 -54.4725093
Ar 150.8942776 177.1723828 -55.2857241
Ar 150.0732494 177.1902343 -54.4325243
Ar 151.7376419 171.3185004 -60.3457772
Ar 152.5739368 171.3058908 -59.5188781
Ar 152.5805943 172.1737809 -60.3627413
Ar 151.7254443 172.1689708 -59.5123855
Ar 151.7382848 171.3002693 -58.6803583
Ar 152.5550099 171.3012492 -57.8212046
Ar 152.5588683 172.1246796 -58.6691081
Ar 151.7155706 172.1536547 -57.8225559
Ar 151.7222543 171.3032090 -57.0084562
Ar 152.5718338 171.3064038 -56.1421142
Ar 152.5635165 172.1369889 -56.9943462
Ar 151.7300872 172.1101705 -56.1418486
Ar 151.7352891 171.2932275 -55.2879692
Ar 152.5886511 171.3059081 -54.4741851
Ar 152.5830036 172.1339086 -55.3005428
Ar 151.7360016 172.1457072 -54.4523720
Ar 151.7286652 172.9877284 -60.3468502
Ar 152.5614082 172.9888890 -59.5097325
Ar 152.5562929 173.8294137 -60.3364022
Ar 151.7359222 173.8390834 -59.4833756
Ar 151.7354043 172.9952463 -58.6665563
Ar 152.5753750 172.9976197 -57.8316532
Ar 152.5897396 173.8292894 -58.6591751
Ar 151.7448189 173.8037359 -57.8502534
Ar 151.7384141 172.9841172 -56.9802439
Ar 152.5541357 172.9674747 -56.1638594
Ar 152.5649297 173.8303494 -56.9830647
Ar 151.7276536 173.8244801 -56.1801345
Ar 151.7562240 172.9557433 -55.3240332
Ar 152.5892401 172.9781336 -54.4949263
Ar 152.5709270 173.8193179 -55.3272127
Ar 151.7398954 173.8285404 -54.4671577
Ar 151.7293015 174.6786548 -60.3556956
Ar 152.5593825 174.6621703 -59.5211414
Ar 152.5772121 175.4971604 -60.3528916
Ar 151.7310656 175.5052178 -59.5126825
Ar 151.7440674 174.6546235 -58.6647100
Ar 152.5861386 174.6473105 -57.8229518
Ar 152.5831148 175.4886085 -58.6717027
Ar 151.7276614 175.4914950 -57.8224047
Ar 151.7627673 174.6749646 -57.0148758
Ar 152.5798498 174.6471822 -56.1457482
Ar 152.5889162 175.4942283 -56.9834062
Ar 151.7499583 175.5099957 -56.1575421
Ar 151.7623857 174.6647915 -55.3224829
Ar 152.5968334 174.6681044 -54.4753508
Ar 152.6101922 175.5158557 -55.3086742
Ar 151.7507056 175.5135371 -54.4551153
Ar 151.7471798 176.3350906 -60.3530357
Ar 152.5912376 176.3453583 -59.4821587
Ar 152.5638429 177.1747946 -60.3501496
Ar 151.7537164 177.1716953 -59.5278448
Ar 151.7553246 176.3252395 -58.6724737
Ar 152.5723529 176.3190383 -57.8251925
Ar 152.5487525 177.1907911 -58.6498748
Ar 151.7149182 177.1827010 -57.8213375
Ar 151.7260417 176.3483320 -56.9983693
Ar 152.5828309 176.3601055 -56.1502191
Ar 152.5649930 177.1903452 -56.9870964
Ar 151.7276075 177.1847182 -56.1449788
Ar 151.7505876 176.3399392 -55.3158923
Ar 152.6089896 176.3548443 -54.4655378
Ar 152.5794932 177.1846579 -55.2940023
Ar 151.7311388 177.1754320 -54.4449565
Ar 153.3956672 171.2917229 -60.3548958
Ar 154.2529282 171.2751505 -59.5211040
Ar 154.2671457 172.1490524 -60.3287498
Ar 153.4129972 172.1501263 -59.5045626
Ar 153.4141040 171.2976900 -58.6831372
Ar 154.2555259 171.3185770 -57.8281182
Ar 154.2523359 172.1412073 -58.6655962
Ar 153.3849794 172.1375127 -57.8187706
Ar 153.4167441 171.3171052 -56.9863853
Ar 154.2625876 171.3198722 -56.1429359
Ar 154.2312992 172.1580795 -56.9971175
Ar 153.4073885 172.1664984 -56.1428394
Ar 153.4242578 171.3062717 -55.3071971
Ar 154.2530800 171.3044126 -54.4549643
Ar 154.2725795 172.1296478 -55.2967303
Ar 153.4244243 172.1327607 -54.4731129
Ar 153.4095067 172.9954391 -60.3430189
Ar 154.2505452 172.9990595 -59.5035153
Ar 154.2573762 173.8160989 -60.3497346
Ar 153.4047555 173.8388483 -59.5083035
Ar 153.4297285 172.9919247 -58.6725904
Ar 154.2398249 172.9990199 -57.8042000
Ar 154.2667935 173.8258127 -58.6654539
Ar 153.4217250 173.8221602 -57.8229124
Ar 153.4200287 172.9962271 -56.9664036
Ar 154.2692401 172.9994576 -56.1291094
Ar 154.2474966 173.8227221 -56.9721023
Ar 153.4311241 173.8252743 -56.1279879
Ar 153.4254634 172.9617291 -55.2954557
Ar 154.2547755 172.9649281 -54.4687220
Ar 154.2739338 173.8158712 -55.2817978
Ar 153.4361960 173.8182024 -54.4655153
Ar 153.4345105 174.6483363 -60.3517133
Ar 154.2680341 174.6698710 -59.5160698
Ar 154.2753187 175.4937540 -60.3586318
Ar 153.4284402 175.4921664 -59.5292664
Ar 153.4349711 174.6458665 -58.6702013
Ar 154.2549799 174.6671624 -57.8212305
Ar 154.2708901 175.5066356 -58.6584442
Ar 153.4155620 175.5007025 -57.8248320
Ar 153.4218590 174.6592741 -56.9689391
Ar 154.2773379 174.6405899 -56.1337562
Ar 154.2716377 175.4964206 -56.9925551
Ar 153.4271493 175.4992054 -56.1422047
Ar 153.4392589 174.6497368 -55.2974147
Ar 154.2671194 174.6520495 -54.4600744
Ar 154.2770234 175.4957783 -55.3112191
Ar 153.4370049 175.4951721 -54.4676561
Ar 153.4208079 176.3348761 -60.3219874
Ar 154.2657091 176.3378014 -59.5162274
Ar 154.2835416 177.1840151 -60.3544147
Ar 153.4176190 177.1827874 -59.5148048
Ar 153.4330557 176.3416718 -58.6660000
Ar 154.2740201 176.3402338 -57.8300432
Ar 154.2638892 177.1655470 -58.6923413
Ar 153.4087033 177.1838619 -57.8301442
Ar 153.3958068 176.3301734 -56.9982244
Ar 154.2573859 176.3525519 -56.1470478
Ar 154.2461024 177.2143004 -56.9858455
Ar 153.4086912 177.2031910 -56.1596206
Ar 153.4481991 176.3474241 -55.2954212
Ar 154.2519967 176.3319564 -54.4524606
Ar 154.2698762 177.2020875 -55.3097270
Ar 153.4395072 177.1983938 -54.4419025
Ar 155.0932161 171.2799433 -60.3593506
Ar 155.9334770 171.3012066 -59.5068161
Ar 155.9360340 172.1515290 -60.3499091
Ar 155.1001861 172.1415766 -59.5016377
Ar 155.0818529 171.2927566 -58.6670169
Ar 155.9473432 171.2933978 -57.8274791
Ar 155.9419006 172.1637880 -58.6891730
Ar 155.0885230 172.1565467 -57.8125444
Ar 155.1082950 171.2926292 -57.0228640
Ar 155.9368638 171.3216119 -56.1420401
Ar 155.9438217 172.1430862 -56.9942241
Ar 155.0903439 172.1492197 -56.1491386
Ar 155.1170476 171.3128473 -55.2997310
Ar 155.9419717 171.3127241 -54.4483173
Ar 155.9503578 172.1447233 -55.2970198
Ar 155.0820770 172.1237705 -54.4531609
Ar 155.0845737 172.9829757 -60.3504048
Ar 155.9322528 173.0073939 -59.5259537
Ar 155.9255091 173.8131690 -60.3369781
Ar 155.0913294 173.8131501 -59.5035633
Ar 155.1210125 172.9836567 -58.6604592
Ar 155.9392759 172.9947683 -57.8105481
Ar 155.9191265 173.8223237 -58.6633920
Ar 155.0783470 173.8343210 -57.8133453
Ar 155.1063146 172.9919835 -56.9909624
Ar 155.9563726 172.9857822 -56.1416906
Ar 155.9215237 173.8124292 -56.9841282
Ar 155.1246864 173.8360157 -56.1357939
Ar 155.0893380 172.9690253 -55.2975097
Ar 155.9228899 172.9747709 -54.4714130
Ar 155.9484302 173.8436949 -55.2989679
Ar 155.0850240 173.8046441 -54.4696309
Ar 155.1023784 174.6598644 -60.3534886
Ar 155.9386826 174.6527222 -59.5073442
Ar 155.9281773 175.5100148 -60.3519655
Ar 155.1203367 175.4920461 -59.5098199
Ar 155.1016395 174.6701695 -58.6649671
Ar 155.9504203 174.6639321 -57.8348029
Ar 155.9494094 175.4907011 -58.6703590
Ar 155.1287875 175.5128019 -57.8192236
Ar 155.1207915 174.6569168 -56.9919416
Ar 155.9665652 174.6579751 -56.1384812
Ar 155.9351876 175.5011454 -56.9699159
Ar 155.1020834 175.5100123 -56.1434661
Ar 155.1279353 174.6629130 -55.2945346
Ar 155.9455444 174.6785947 -54.4588225
Ar 155.9439901 175.5131782 -55.3071518
Ar 155.1133165 175.4922043 -54.4864481
Ar 155.0971331 176.3315321 -60.3468861
Ar 155.9402518 176.3396145 -59.4946996
Ar 155.9405985 177.1611647 -60.3576243
Ar 155.1059985 177.1776961 -59.4877645
Ar 155.0977653 176.3298238 -58.6811419
Ar 155.9497636 176.3342017 -57.8462017
Ar 155.9452720 177.1753619 -58.6642744
Ar 155.0969767 177.1831300 -57.8302797
Ar 155.0961468 176.3427907 -57.0068421
Ar 155.9452609 176.3404305 -56.1343601
Ar 155.9635172 177.1747427 -56.9783218
Ar 155.1254136 177.2069926 -56.1476846
Ar 155.1021706 176.3500936 -55.3164204
Ar 155.9475288 176.3446991 -54.4813033
Ar 155.9559361 177.1759846 -55.3111773
Ar 155.0970532 177.1912487 -54.4910668
