256
6.718400 6.718400 6.718400
Ar 255.0661178 291.0669619 -102.4537609
Ar 255.9140512 291.0948520 -101.7330809
Ar 255.8581236 291.9852440 -102.5606070
Ar 255.0183372 291.8579651 -101.6930606
Ar 255.1260232 291.2092333 -100.9390508
Ar 255.7776441 291.1162124 -99.9470436
Ar 255.6826655 292.0688790 -100.7738870
Ar 254.9184606 292.0402205 -99.8675748
Ar 255.0690383 291.0133307 -99.1662569
Ar 255.9387899 291.1566154 -98.3959110
Ar 255.9040546 291.9117039 -99.1109237
Ar 255.0332706 291.9397418 -98.3660807
Ar 255.3017407 291.0880679 -97.5909721
Ar 255.8659825 291.0911211 -96.6135302
Ar 255.7655212 292.0455755 -97.5307654
Ar 255.0953185 291.8247898 -96.5595378
Ar 254.9929775 292.7303063 -102.4659484
Ar 256.0151742 292.7483187 -101.7100338
Ar 255.9453746 293.5068509 -102.5462555
Ar 255.0999090 293.5368761 -101.6008005
Ar 254.8751236 292.7761659 -100.8628340
Ar 255.6367272 292.8943719 -99.9963014
Ar 255.8605607 293.6799167 -100.9127623
Ar 254.9446507 293.6794111 -100.0156250
Ar 255.1017381 292.8505273 -99.0258977
Ar 256.0525440 292.9830212 -98.2910187
Ar 255.8090063 293.6040041 -99.1945181
Ar 255.0490069 293.7093178 -98.3672194
Ar 255.0467657 292.9404262 -97.5755430
Ar 255.7884993 292.7027626 -96.6145233
Ar 255.8297138 293.5832080 -97.4240043
Ar 255.0000205 293.4742428 -96.5429501
Ar 255.0218744 294.3827262 -102.6415849
Ar 255.8481936 294.4837559 -101.8692714
Ar 255.6546304 295.2392543 -102.5654153
Ar 254.9227718 295.3822007 -101.6732513
Ar 254.9250623 294.3836994 -100.9524580
Ar 255.7589609 294.3921952 -100.1347264
Ar 255.7219173 295.1927119 -101.0239699
Ar 254.3525692 295.3206866 -99.2770325
Ar 255.0046975 294.5508649 -99.1366687
Ar 255.8631813 294.5128112 -98.2148209
Ar 255.0781679 295.2676902 -100.2045982
Ar 255.1399509 295.2751830 -98.3079538
Ar 254.9836297 294.3994845 -97.4378171
Ar 255.8246279 294.4639599 -96.6920663
Ar 255.8277260 295.4488890 -97.5199943
Ar 255.0022347 295.3467924 -96.7758961
Ar 254.9158364 296.1203585 -102.4016073
Ar 255.8889498 296.0313821 -101.7337588
Ar 255.8262223 296.9286149 -102.4127044
Ar 255.0290019 296.9788633 -101.6210674
Ar 254.9487707 296.1118862 -100.8374502
Ar 255.8162593 296.2358423 -100.2440908
Ar 255.9440531 297.1004852 -100.8472338
Ar 255.0472112 297.0506774 -100.1296348
Ar 255.8309457 296.2116092 -98.3701821
Ar 255.7563480 295.3082882 -99.3702104
Ar 255.9608499 296.9452823 -99.2818366
Ar 255.1278904 296.9753835 -98.4241844
Ar 255.0665270 296.1066671 -97.5777610
Ar 255.9881812 296.1030595 -96.6195597
Ar 255.9315571 296.9130456 -97.4619294
Ar 255.0766368 296.6556170 -96.5450897
Ar 256.6681591 291.1765061 -102.5525817
Ar 257.6754085 291.1370747 -101.7471882
Ar 257.4929810 291.9611645 -102.7067291
Ar 256.6597455 291.8157639 -101.6531144
Ar 256.9494070 290.9821205 -100.8665033
Ar 257.5627428 291.1011043 -100.0926043
Ar 257.3766338 291.9393087 -100.8236670
Ar 256.6022716 291.9114931 -100.1015371
Ar 256.7240832 291.1350782 -99.1735188
Ar 257.3674605 291.0759526 -98.2836993
Ar 257.4655772 292.0313489 -99.0982548
Ar 256.7352224 291.9401550 -98.3513178
Ar 256.5776047 291.1499685 -97.4263189
Ar 257.5180804 290.9999088 -96.6307779
Ar 257.6155021 291.9451900 -97.7021502
Ar 256.6318059 291.9848440 -96.7471134
Ar 256.6658479 292.7449892 -102.6233698
Ar 257.4452819 292.6806036 -101.6599596
Ar 257.6110835 293.4894998 -102.6444705
Ar 256.6832058 293.5627465 -101.5721349
Ar 256.5858354 292.7998237 -100.7397524
Ar 257.4564715 292.7493380 -100.0849042
Ar 257.4662226 293.6922200 -100.7627225
Ar 256.5566612 293.6413991 -100.0165471
Ar 256.6219221 292.7840465 -99.1932029
Ar 257.4557861 292.7682852 -98.2325311
Ar 257.3307923 293.7145727 -99.1140626
Ar 256.6673114 293.7953413 -98.1989390
Ar 256.7161791 292.9293557 -97.4542919
Ar 257.6233208 292.7502518 -96.7489833
Ar 257.4747541 293.6947341 -97.5934346
Ar 256.8423263 293.6299994 -96.5850151
Ar 256.7500936 294.4000425 -102.5059250
Ar 257.4566793 294.4272144 -101.6481371
Ar 257.5963470 295.5075875 -102.4101614
Ar 256.6372052 295.3345294 -101.7461284
Ar 256.6120643 294.4835780 -100.9233653
Ar 257.2470467 294.4953065 -99.9758709
Ar 257.3845530 295.3519717 -100.9138091
Ar 256.6277602 295.4271390 -100.1366960
Ar 256.5174026 294.4188733 -99.1094393
Ar 257.4528645 294.4591116 -98.4154970
Ar 257.5225575 295.3998136 -99.2049276
Ar 256.6328378 295.2302294 -98.2165280
Ar 256.6657797 294.5251740 -97.4325008
Ar 257.4924819 294.5112495 -96.7272271
Ar 257.4572701 295.4020158 -97.4958147
Ar 256.7610617 295.3606837 -96.6743818
Ar 256.7346760 296.1907314 -102.5525150
Ar 257.6261757 296.2309214 -101.6667915
Ar 257.5641031 297.0290147 -102.4888738
Ar 256.8038904 296.9343934 -101.7216365
Ar 256.7408647 296.2376665 -100.8355347
Ar 257.5475013 296.1830858 -99.9404232
Ar 257.7159985 296.9351062 -100.7356131
Ar 256.8492197 297.0319194 -100.0550411
Ar 256.6038825 296.0757973 -99.1541137
Ar 257.3836326 296.1791047 -98.2251875
Ar 257.5961894 296.9520480 -99.1977787
Ar 256.5780125 296.9738988 -98.3913960
Ar 256.7265479 296.1956241 -97.4109946
Ar 257.6385966 296.1385263 -96.6239150
Ar 257.4938939 297.0072755 -97.5256079
Ar 256.5899766 297.0111122 -96.5480592
Ar 258.3436153 291.0749244 -102.6502424
Ar 259.2680002 291.0393117 -101.7840354
Ar 259.1675891 291.9948366 -102.5363213
Ar 258.3932020 292.1181635 -101.7366795
Ar 258.2952221 291.3030586 -100.8684268
Ar 259.1307887 291.0745513 -100.1138002
Ar 259.2276157 291.9385244 -100.8023885
Ar 258.3404745 291.9804834 -100.0464338
Ar 258.3130297 291.1735572 -99.1570539
Ar 259.1556246 291.2874865 -98.4360602
Ar 259.2639428 291.9585027 -99.2978042
Ar 258.3902739 291.9734873 -98.5322514
Ar 258.2445653 290.9923515 -97.6183057
Ar 259.3917438 291.1851898 -96.7770537
Ar 259.3434715 292.0490558 -97.6659965
Ar 258.4013460 291.7855557 -96.8438434
Ar 258.5767355 292.9975602 -102.4982852
Ar 259.3859322 292.8812711 -101.5700637
Ar 259.4463239 293.7391640 -102.5345383
Ar 258.0987637 293.5604558 -101.7175265
Ar 258.3334292 292.9557896 -100.8094364
Ar 259.0397378 292.8629610 -99.9682203
Ar 259.3000492 293.8084845 -100.5789198
Ar 258.2918206 293.7902817 -100.0166403
Ar 258.0838714 292.8061798 -99.1900759
Ar 259.0850522 292.8386068 -98.5768265
Ar 259.1216191 293.7399821 -99.2141364
Ar 258.2563576 293.5820541 -98.5571006
Ar 258.4293734 292.7884955 -97.5585200
Ar 259.1287453 292.5993153 -96.7171954
Ar 259.2553908 293.4222159 -97.5009124
Ar 258.3520549 293.7549409 -96.8154406
Ar 258.3118412 294.2915595 -102.5197027
Ar 259.1603322 294.4996704 -101.6013448
Ar 259.2595809 295.0961041 -102.6268107
Ar 258.4218314 295.3310796 -101.6547355
Ar 258.2990279 294.5195170 -100.8852245
Ar 259.1786193 294.7017385 -99.9342661
Ar 259.2269451 295.3024056 -100.8816064
Ar 258.2265753 295.2100543 -100.1265732
Ar 258.2298438 294.5073406 -99.1194878
Ar 259.2531496 294.5126335 -98.5781696
Ar 258.9604322 295.4780586 -99.0456357
Ar 258.2202790 295.2993956 -98.2444372
Ar 258.4257890 294.3297270 -97.6885089
Ar 259.3177300 294.4099412 -96.7984001
Ar 259.1323197 295.3165259 -97.4386759
Ar 258.1781929 295.2723732 -96.6362200
Ar 258.4088846 296.2792546 -102.6709029
Ar 259.2794813 296.2335556 -101.4924013
Ar 259.3158070 296.9768252 -102.7516565
Ar 258.4735404 296.9825054 -101.8807761
Ar 258.3238463 296.0725916 -100.8276823
Ar 259.1772235 296.1673286 -100.0674825
Ar 259.0441932 297.0220153 -100.8533117
Ar 258.4845568 296.9648950 -99.9371140
Ar 258.2189758 296.2112857 -98.8641552
Ar 259.3337827 296.0924230 -98.3503197
Ar 259.3652090 297.0457083 -99.0297636
Ar 258.6246400 297.0285459 -98.2447222
Ar 258.2774794 296.0813424 -97.5121869
Ar 259.1427837 296.2401460 -96.8076092
Ar 259.4683252 297.0089929 -97.5481842
Ar 258.4330106 297.0273187 -96.8297395
Ar 260.1654085 291.0267374 -102.7039343
Ar 260.9173241 291.0278401 -101.6808165
Ar 260.8006413 291.9803577 -102.4862818
Ar 260.0864880 291.8922749 -101.6875182
Ar 260.1203776 291.0171476 -100.7090327
Ar 260.9100060 291.1956139 -99.9294737
Ar 260.8558569 291.8521268 -100.8707090
Ar 260.0968056 292.0656883 -100.0610473
Ar 260.0346751 291.0994694 -99.2400275
Ar 261.0139474 291.1469851 -98.4474823
Ar 260.8164285 292.1534417 -99.1833964
Ar 260.2689988 292.0476371 -98.3024608
Ar 260.1125603 291.0729226 -97.6294491
Ar 261.1525611 290.8442236 -96.7518083
Ar 260.9617491 291.7367855 -97.4761217
Ar 260.1794083 291.9822412 -96.7623230
Ar 259.9564661 292.7832588 -102.5100860
Ar 260.9006470 292.7798064 -101.7797935
Ar 260.7474134 293.5253107 -102.5786392
Ar 260.1317987 293.8106956 -101.6299304
Ar 260.1240354 292.7010674 -100.8796119
Ar 260.8488105 292.9571015 -99.9257186
Ar 260.8425669 293.5360634 -100.8966785
Ar 260.0702359 293.7626713 -99.8538969
Ar 259.9739063 292.9115967 -99.1186400
Ar 260.9890170 292.8983206 -98.3276760
Ar 260.8221466 293.6635166 -99.1575745
Ar 260.0405438 293.5803282 -98.3618724
Ar 260.2696019 292.7859208 -97.4541452
Ar 261.0077809 292.6531083 -96.7243360
Ar 260.9149529 293.5756723 -97.4989051
Ar 260.0606060 293.5286470 -96.6612164
Ar 260.1221021 294.5102704 -102.6422361
Ar 260.9870704 294.4911236 -101.8432187
Ar 260.9835533 295.1778041 -102.7465382
Ar 260.0102829 295.2914559 -101.6913880
Ar 260.1705099 294.5674754 -100.7919519
Ar 260.9276444 294.4307557 -100.0243403
Ar 260.7831588 295.3670504 -100.8951111
Ar 260.1365714 295.3386951 -100.0027646
Ar 260.1909111 294.5954935 -99.1445506
Ar 260.9629260 294.5343887 -98.4048969
Ar 261.7856986 296.1178376 -99.3498273
Ar 260.2332543 295.3726164 -98.3651797
Ar 259.9844594 294.5675714 -97.6831601
Ar 260.7059084 294.4100676 -96.9288368
Ar 260.9436121 295.3725561 -97.5659915
Ar 260.1263794 295.3318076 -96.6868174
Ar 259.9904775 296.0187336 -102.6073418
Ar 260.6993661 296.2058657 -101.8058210
Ar 261.0011617 296.9786877 -102.5419741
Ar 259.9792954 296.9842769 -101.8219049
Ar 260.0778223 296.2064806 -100.7033518
Ar 260.8497113 296.0468681 -100.0133087
Ar 260.8829103 296.8717136 -100.9509447
Ar 260.0559985 297.0670900 -99.9643260
Ar 260.1076920 296.2120399 -99.1767589
Ar 261.0991833 296.1993915 -98.3968557
Ar 260.9369655 296.9381734 -99.1942121
Ar 260.2674285 296.9092366 -98.3510820
Ar 260.0727943 296.1359140 -97.5539306
Ar 260.8298317 296.1621204 -96.7934383
Ar 261.1400663 296.9759645 -97.6057224
Ar 260.1282558 296.9535731 -96.7591851
