256
6.718400 6.718400 6.718400
Ar  0.1931655  0.0668701 -0.1760076
Ar  1.1025475  0.0789255  0.8125666
Ar  1.0374208  0.9624717 -0.0526577
Ar  0.3303266  0.8819976  0.8061072
Ar  0.1070999  0.0557890  1.5975352
Ar  0.9429879  0.1352668  2.5850759
Ar  0.9313007  0.9706218  1.8390432
Ar  0.0916033  1.0617609  2.5233499
Ar -0.0588573  0.2017734  3.2270833
Ar  0.9204072  0.0582079  4.1709168
Ar  0.9790083  0.9032567  3.2282081
Ar  0.2122547  0.8392547  3.9598212
Ar  0.1870883  0.1934544  4.9134361
Ar  1.0453104  0.1770297  5.7001458
Ar  1.0067652  0.8881635  4.9469562
Ar  0.2372046  0.9127619  5.8784734
Ar  0.1511856  1.7664247  0.0045143
Ar  1.0089078  1.7275966  0.7300194
Ar  0.9475385  2.6104372  0.0943572
Ar  0.0864891  2.5682452  0.8324179
Ar  0.1993288  1.7493231  1.7646363
Ar  0.9037175  1.7693648  2.5853210
Ar  0.8929294  2.5894397  1.7175771
Ar  0.0373217  2.7727293  2.4843261
Ar -0.0201352  1.9445539  3.3409882
Ar  0.8868084  1.7210565  3.9188086
Ar  0.8855637  2.8042040  3.1373815
Ar  0.0893025  2.5043084  4.3833059
Ar  0.3258397  1.7923205  5.0405512
Ar  1.0575595  1.7335189  5.8053235
Ar  0.9898063  2.6923082  5.0518136
Ar  0.1051752  2.5773808  5.8021563
Ar  0.1642395  3.5035406 -0.0235869
Ar  0.9215512  3.5333805  0.8273851
Ar  0.9183198  4.3742228  0.0650244
Ar  0.0851177  4.3426622  0.7975839
Ar  0.2172004  3.4387320  1.6967230
Ar  0.9240321  3.6252186  2.4324379
Ar  0.9230446  4.3815704  1.6138481
Ar  0.1867560  4.4461315  2.3664561
Ar  0.1027076  3.7542441  3.2304501
Ar  0.7483638  3.3859558  4.0755051
Ar  1.0078330  4.3780554  3.3027527
Ar  0.1088887  4.4903456  4.1788761
Ar  0.1034213  3.4920739  4.9810678
Ar  0.8488704  3.4021402  5.8137585
Ar  1.0697023  4.1570513  4.9869076
Ar  0.1587166  4.5020412  5.7600721
Ar  0.2217116  5.2613358 -0.1244712
Ar  1.0848973  5.1204167  0.8403192
Ar  1.0145667  5.9912316 -0.1192444
Ar  0.2568354  6.0916815  0.7331839
Ar  0.1786810  5.2244350  1.5785382
Ar  0.9596384  5.3475917  2.4671575
Ar  0.9825242  6.0459472  1.6405805
Ar  0.0872075  6.0346146  2.4436443
Ar  0.2011530  5.0820778  3.2227217
Ar  0.9994091  5.0868213  4.0925162
Ar  0.9558808  6.0110475  3.2978122
Ar  0.1718239  6.1275725  4.0265077
Ar  0.0979163  5.2693864  4.9029063
Ar  1.0269479  5.1329356  5.6835289
Ar  0.9376314  6.0314723  4.9214541
Ar  0.1402716  6.0468515  5.6720201
Ar  1.7540573  0.2285849  0.0288484
Ar  2.5970605  0.2260375  0.9188063
Ar  2.5943353  1.0337050  0.1224475
Ar  1.6509818  0.9344370  0.8340323
Ar  1.7994695  0.1624611  1.6828924
Ar  2.7115388  0.1967010  2.3638273
Ar  2.5548266  1.0000266  1.6409625
Ar  1.8953990  0.8962463  2.5243465
Ar  1.7712338  0.1460807  3.3453155
Ar  2.5575028  0.1297407  4.1543886
Ar  2.5467456  0.8774236  3.3194596
Ar  1.8759818  0.9036166  4.2589720
Ar  1.8699710  0.0649465  4.8791685
Ar  2.3334550  0.1164874  5.7766623
Ar  2.6550301  0.8821111  4.9673151
Ar  1.8308893  1.0107097  5.7321078
Ar  1.8210178  1.7347866 -0.1723807
Ar  2.4838709  1.8599949  0.8861911
Ar  2.5310166  2.6662091 -0.0316536
Ar  1.6864270  2.7120739  0.8683549
Ar  1.7092270  1.7988624  1.8468482
Ar  2.5135725  1.7209137  2.6688311
Ar  2.7821304  2.8529899  1.8221039
Ar  1.8893126  2.6722432  2.5661955
Ar  1.7356416  1.6946884  3.3879925
Ar  2.4723304  1.7898855  4.2174360
Ar  2.5476951  2.5395559  3.4663718
Ar  1.6433223  2.5821675  4.1354064
Ar  1.6906908  1.8000560  4.9357346
Ar  2.6434186  1.8827373  5.7790708
Ar  2.7510138  2.5309214  4.8974883
Ar  1.8039589  2.5156314  5.8481208
Ar  1.7785266  3.3869469 -0.0278773
Ar  2.6612283  3.5246406  0.8692629
Ar  2.4597776  4.2641348 -0.0967110
Ar  1.8532762  4.3093218  0.8099907
Ar  1.9073739  3.5144071  1.7086796
Ar  2.5375456  3.5405100  2.7045133
Ar  2.7813723  4.3129919  1.6325620
Ar  1.6086600  4.4096298  2.4515756
Ar  1.6989735  3.4915206  3.4154374
Ar  2.8598436  3.5798119  3.9415474
Ar  2.8283635  4.4407224  3.2668093
Ar  1.9056329  4.3416334  4.1059839
Ar  1.8257207  3.3206337  5.0791484
Ar  2.5849919  3.2971440  5.8005772
Ar  2.5357516  4.2072905  5.0379975
Ar  1.5739013  4.1420654  5.9555858
Ar  1.6670102  5.1835383 -0.0678025
Ar  2.5424758  5.1349628  0.6737824
Ar  2.5127718  5.9940136 -0.0463436
Ar  1.8501582  6.0859292  0.7893179
Ar  1.7607866  5.2595966  1.8482886
Ar  2.6951827  5.2636077  2.5011254
Ar  2.5395299  6.0538991  1.7199447
Ar  1.7749499  6.0452994  2.5894841
Ar  1.7504425  5.1898371  3.2299135
Ar  2.7094815  5.2498190  4.0405828
Ar  2.6490700  6.0891220  3.2208450
Ar  1.8225981  5.8861125  3.9667704
Ar  1.6780036  5.1847617  4.9063365
Ar  2.5511911  5.0773267  5.8926464
Ar  2.5421897  6.0169932  4.9393007
Ar  1.7137876  5.9307612  5.7854148
Ar  3.3185859  0.0775503  0.0776153
Ar  4.4402187  0.1983834  0.8674827
Ar  4.3781476  0.9442390 -0.1098818
Ar  3.4576683  1.0782228  0.7969106
Ar  3.6577800  0.2194280  1.6436684
Ar  4.2635582  0.3067136  2.5440282
Ar  4.3528507  0.9388214  1.6602082
Ar  3.4758531  1.0540571  2.5279531
Ar  3.3524742  0.1999655  3.2037767
Ar  4.2875975  0.2658680  4.0872886
Ar  4.4205667  1.0953288  3.2123321
Ar  3.4005754  0.9010649  4.0034706
Ar  3.3154635  0.0033052  5.0230061
Ar  3.9675960  0.0502790  5.9129689
Ar  4.4435471  0.9799268  5.1227745
Ar  3.4724836  0.9820824  6.0199320
Ar  3.3917423  1.8898004  0.0318945
Ar  4.2714963  1.7427891  0.7276013
Ar  4.2526331  2.7364264 -0.0713412
Ar  3.2834656  2.5927437  0.8621917
Ar  3.4606571  1.8305678  1.6956944
Ar  4.3529564  1.8085720  2.3918047
Ar  4.2672828  2.6921112  1.2596235
Ar  3.5450671  2.5640290  2.5615281
Ar  3.5416633  1.8354429  3.3482084
Ar  4.3304154  1.9049948  4.0593995
Ar  4.2372121  2.7551150  3.4533683
Ar  3.4655126  2.4986474  4.1626369
Ar  3.4982529  1.6770320  5.0992687
Ar  4.2967973  1.7343306  5.8460807
Ar  4.3804368  2.5278403  4.9894352
Ar  3.5728539  2.6773877  5.6712667
Ar  3.4557146  3.4261787  0.1518339
Ar  4.3949042  3.6076474  0.6828852
Ar  4.2123353  4.0990741 -0.2885464
Ar  3.4553308  4.5590600  0.7190531
Ar  3.6468445  3.6073443  1.2821548
Ar  4.1934524  3.3873468  2.1939588
Ar  4.4314365  4.3120995  1.5981764
Ar  3.5064654  4.3807921  2.3741010
Ar  3.6729161  3.6467205  3.1049732
Ar  4.3007671  3.5242230  4.1624440
Ar  4.3318375  4.4740894  3.3446914
Ar  3.6014501  4.4802830  4.1073240
Ar  3.5291536  3.6754960  4.8683993
Ar  4.4124929  3.4694254  5.5555972
Ar  4.4212892  4.3834963  4.9619537
Ar  3.4615660  4.2211682  5.7117204
Ar  3.5169499  5.3556365 -0.0651928
Ar  4.1672240  5.5321586  0.8902258
Ar  4.3037970  6.1045784  0.0215825
Ar  3.2985279  6.0758011  0.9316116
Ar  3.5057476  5.3186541  1.8175962
Ar  4.2756302  5.1658865  2.5776821
Ar  4.3647752  6.0148541  1.8709822
Ar  3.4042989  6.0389574  2.5557992
Ar  3.5734543  5.3289058  3.2887079
Ar  4.2884727  5.3638113  4.1274840
Ar  4.3208562  6.1925360  3.1974824
Ar  3.5432018  6.0427464  4.1907105
Ar  3.6949781  5.2237516  5.0259741
Ar  4.3209674  5.0210502  5.8861499
Ar  4.3701754  6.4416399  4.9135035
Ar  3.2365337  5.9971141  5.7793436
Ar  5.2552449  0.2455519 -0.0682173
Ar  6.1636729  0.1311139  0.6738726
Ar  6.1186630  0.9410755 -0.1584490
Ar  5.1062804  1.0520663  0.9364837
Ar  5.0683472  0.0403796  1.6468467
Ar  6.0270820  0.0190701  2.3648377
Ar  6.1905092  0.8992702  1.5840913
Ar  5.3414352  1.0084935  2.3629005
Ar  5.1182010  0.2730066  3.4351015
Ar  6.0357567  0.2155129  4.1135871
Ar  5.9873270  1.0254518  3.2812651
Ar  5.1043511  1.0972656  4.1499984
Ar  5.2776951  0.3239240  4.8714211
Ar  6.0521483  0.0775683  5.8353979
Ar  6.1953820  1.0151966  5.0712816
Ar  5.3400436  0.8878763  5.8077661
Ar  5.0916468  1.6238431 -0.0867347
Ar  5.9786956  1.7989185  0.7407477
Ar  6.1205607  2.5700872  0.0007240
Ar  5.2358776  2.6835273  0.8047384
Ar  5.1312424  1.8995566  1.6311072
Ar  5.9632245  1.8603030  2.4153292
Ar  6.0256458  2.7327002  1.6681848
Ar  5.1718525  2.7208270  2.4905511
Ar  5.2337328  1.8061100  3.1768018
Ar  6.1058198  1.6822422  4.2334390
Ar  6.1659239  2.8212772  3.4203004
Ar  5.1584317  2.7007337  4.0097318
Ar  5.1329560  1.7705733  5.1037358
Ar  6.1282881  1.7616740  5.9426651
Ar  5.9301306  2.5140833  5.0329157
Ar  5.2622127  2.4216463  5.9321389
Ar  5.3988923  3.3628778 -0.1727320
Ar  6.2509782  3.4768528  0.8812748
Ar  6.1173735  4.3962900 -0.1848941
Ar  5.1463399  4.2866182  0.5043434
Ar  5.2661426  3.5246951  1.5127846
Ar  5.9548516  3.5515803  2.6711449
Ar  6.1464875  4.3606972  1.5600270
Ar  5.1916909  4.4100130  2.5296702
Ar  5.1681303  3.6522607  3.5190148
Ar  6.1055344  3.4161172  4.2381452
Ar  6.0485528  4.4719076  3.2965117
Ar  5.3385321  4.3810827  4.1844482
Ar  5.1660338  3.5519412  4.8205895
Ar  6.1802056  3.4744947  5.8467690
Ar  6.0548367  4.2063395  5.0450580
Ar  5.2449369  4.1893859  5.8078148
Ar  5.1013712  5.3489354 -0.0333054
Ar  5.8364351  5.1763846  0.8190954
Ar  5.9875623  6.0487348 -0.0271452
Ar  5.2446081  6.1126647  0.8161403
Ar  5.1072904  5.1160819  1.6772131
Ar  6.1747024  5.1150747  2.4168105
Ar  6.0210880  5.8971645  1.6451028
Ar  5.1972766  6.0979015  2.4892728
Ar  4.9971446  5.3902305  3.2475623
Ar  5.9731045  5.2628202  4.1266822
Ar  5.8985261  6.1210503  3.3071485
Ar  5.1928433  6.1151891  4.1798782
Ar  5.2181969  5.1574078  5.0324446
Ar  5.9798516  5.2712362  5.8031583
Ar  6.1041885  6.1328363  4.9319923
Ar  5.2213442  6.0745597  5.8406014
